* NGSPICE file created from collapsering_macro.ext - technology: sky130A

* Black-box entry subcircuit for sky130_fd_sc_hd__decap_8 abstract view
.subckt sky130_fd_sc_hd__decap_8 VGND VNB VPB VPWR
.ends

* Black-box entry subcircuit for sky130_fd_sc_hd__decap_4 abstract view
.subckt sky130_fd_sc_hd__decap_4 VGND VNB VPB VPWR
.ends

* Black-box entry subcircuit for sky130_fd_sc_hd__clkinv_1 abstract view
.subckt sky130_fd_sc_hd__clkinv_1 A VGND VNB VPB VPWR Y
.ends

* Black-box entry subcircuit for sky130_fd_sc_hd__decap_6 abstract view
.subckt sky130_fd_sc_hd__decap_6 VGND VNB VPB VPWR
.ends

* Black-box entry subcircuit for sky130_fd_sc_hd__fill_2 abstract view
.subckt sky130_fd_sc_hd__fill_2 VGND VNB VPB VPWR
.ends

* Black-box entry subcircuit for sky130_fd_sc_hd__diode_2 abstract view
.subckt sky130_fd_sc_hd__diode_2 DIODE VGND VNB VPB VPWR
.ends

* Black-box entry subcircuit for sky130_fd_sc_hd__einvn_4 abstract view
.subckt sky130_fd_sc_hd__einvn_4 A TE_B VGND VNB VPB VPWR Z
.ends

* Black-box entry subcircuit for sky130_fd_sc_hd__tapvpwrvgnd_1 abstract view
.subckt sky130_fd_sc_hd__tapvpwrvgnd_1 VGND VPWR
.ends

* Black-box entry subcircuit for sky130_fd_sc_hd__einvp_2 abstract view
.subckt sky130_fd_sc_hd__einvp_2 A TE VGND VNB VPB VPWR Z
.ends

* Black-box entry subcircuit for sky130_fd_sc_hd__decap_3 abstract view
.subckt sky130_fd_sc_hd__decap_3 VGND VNB VPB VPWR
.ends

* Black-box entry subcircuit for sky130_fd_sc_hd__clkbuf_2 abstract view
.subckt sky130_fd_sc_hd__clkbuf_2 A VGND VNB VPB VPWR X
.ends

* Black-box entry subcircuit for sky130_fd_sc_hd__fill_1 abstract view
.subckt sky130_fd_sc_hd__fill_1 VGND VNB VPB VPWR
.ends

* Black-box entry subcircuit for sky130_fd_sc_hd__clkbuf_1 abstract view
.subckt sky130_fd_sc_hd__clkbuf_1 A VGND VNB VPB VPWR X
.ends

* Black-box entry subcircuit for sky130_fd_sc_hd__decap_12 abstract view
.subckt sky130_fd_sc_hd__decap_12 VGND VNB VPB VPWR
.ends

* Black-box entry subcircuit for sky130_fd_sc_hd__einvn_8 abstract view
.subckt sky130_fd_sc_hd__einvn_8 A TE_B VGND VNB VPB VPWR Z
.ends

* Black-box entry subcircuit for sky130_fd_sc_hd__mux4_2 abstract view
.subckt sky130_fd_sc_hd__mux4_2 A0 A1 A2 A3 S0 S1 VGND VNB VPB VPWR X
.ends

* Black-box entry subcircuit for sky130_fd_sc_hd__dfxbp_2 abstract view
.subckt sky130_fd_sc_hd__dfxbp_2 CLK D VGND VNB VPB VPWR Q Q_N
.ends

* Black-box entry subcircuit for sky130_fd_sc_hd__nand2_4 abstract view
.subckt sky130_fd_sc_hd__nand2_4 A B VGND VNB VPB VPWR Y
.ends

* Black-box entry subcircuit for sky130_fd_sc_hd__mux2_2 abstract view
.subckt sky130_fd_sc_hd__mux2_2 A0 A1 S VGND VNB VPB VPWR X
.ends

* Black-box entry subcircuit for sky130_fd_sc_hd__clkbuf_8 abstract view
.subckt sky130_fd_sc_hd__clkbuf_8 A VGND VNB VPB VPWR X
.ends

.subckt collapsering_macro clk_out clkmux[0] clkmux[1] clkmux[2] start trim_a[0] trim_a[10]
+ trim_a[11] trim_a[12] trim_a[13] trim_a[14] trim_a[15] trim_a[16] trim_a[17] trim_a[18]
+ trim_a[19] trim_a[1] trim_a[20] trim_a[21] trim_a[22] trim_a[23] trim_a[24] trim_a[25]
+ trim_a[26] trim_a[27] trim_a[2] trim_a[3] trim_a[4] trim_a[5] trim_a[6] trim_a[7]
+ trim_a[8] trim_a[9] trim_b[0] trim_b[10] trim_b[11] trim_b[12] trim_b[13] trim_b[14]
+ trim_b[15] trim_b[16] trim_b[17] trim_b[18] trim_b[19] trim_b[1] trim_b[20] trim_b[21]
+ trim_b[22] trim_b[23] trim_b[24] trim_b[25] trim_b[26] trim_b[27] trim_b[2] trim_b[3]
+ trim_b[4] trim_b[5] trim_b[6] trim_b[7] trim_b[8] trim_b[9] vccd1 vssd1
XFILLER_42_51 vssd1 vssd1 vccd1 vccd1 sky130_fd_sc_hd__decap_8
XFILLER_42_40 vssd1 vssd1 vccd1 vccd1 sky130_fd_sc_hd__decap_4
Xring.x2.x3 ring.x2.x6/Z vssd1 vssd1 vccd1 vccd1 ring.x2.x4/A sky130_fd_sc_hd__clkinv_1
XFILLER_23_75 vssd1 vssd1 vccd1 vccd1 sky130_fd_sc_hd__decap_6
XFILLER_0_57 vssd1 vssd1 vccd1 vccd1 sky130_fd_sc_hd__fill_2
XFILLER_0_24 vssd1 vssd1 vccd1 vccd1 sky130_fd_sc_hd__decap_4
XFILLER_9_11 vssd1 vssd1 vccd1 vccd1 sky130_fd_sc_hd__decap_4
XANTENNA_ring.x34_S clkmux[2] vssd1 vssd1 vccd1 vccd1 sky130_fd_sc_hd__diode_2
XANTENNA_ring.x16.x7_TE_B trim_b[6] vssd1 vssd1 vccd1 vccd1 sky130_fd_sc_hd__diode_2
XANTENNA_ring.x3.x2_TE_B trim_a[5] vssd1 vssd1 vccd1 vccd1 sky130_fd_sc_hd__diode_2
Xring.x8.x2 ring.x8.x7/A trim_a[15] vssd1 vssd1 vccd1 vccd1 ring.x8.x6/Z sky130_fd_sc_hd__einvn_4
XANTENNA_ring.x40.x6_TE trim_a[27] vssd1 vssd1 vccd1 vccd1 sky130_fd_sc_hd__diode_2
XFILLER_29_52 vssd1 vssd1 vccd1 vccd1 sky130_fd_sc_hd__decap_4
XFILLER_20_32 vssd1 vssd1 vccd1 vccd1 sky130_fd_sc_hd__decap_4
XFILLER_20_43 vssd1 vssd1 vccd1 vccd1 sky130_fd_sc_hd__decap_4
XFILLER_6_56 vssd1 vssd1 vccd1 vccd1 sky130_fd_sc_hd__decap_4
XFILLER_13_3 vssd1 vssd1 vccd1 vccd1 sky130_fd_sc_hd__decap_4
Xring.x5.x3 ring.x5.x6/Z vssd1 vssd1 vccd1 vccd1 ring.x5.x4/A sky130_fd_sc_hd__clkinv_1
XANTENNA_ring.x23.x2_TE_B trim_b[19] vssd1 vssd1 vccd1 vccd1 sky130_fd_sc_hd__diode_2
XFILLER_31_64 vssd1 vssd1 vccd1 vccd1 sky130_fd_sc_hd__decap_6
XTAP_134 vssd1 vccd1 sky130_fd_sc_hd__tapvpwrvgnd_1
XTAP_123 vssd1 vccd1 sky130_fd_sc_hd__tapvpwrvgnd_1
XTAP_101 vssd1 vccd1 sky130_fd_sc_hd__tapvpwrvgnd_1
XTAP_112 vssd1 vccd1 sky130_fd_sc_hd__tapvpwrvgnd_1
Xring.x2.x4 ring.x2.x4/A trim_a[2] vssd1 vssd1 vccd1 vccd1 ring.x3.x1/A sky130_fd_sc_hd__einvp_2
XFILLER_12_11 vssd1 vssd1 vccd1 vccd1 sky130_fd_sc_hd__decap_4
XFILLER_12_44 vssd1 vssd1 vccd1 vccd1 sky130_fd_sc_hd__decap_4
XFILLER_12_55 vssd1 vssd1 vccd1 vccd1 sky130_fd_sc_hd__decap_4
XFILLER_12_77 vssd1 vssd1 vccd1 vccd1 sky130_fd_sc_hd__decap_4
XFILLER_23_10 vssd1 vssd1 vccd1 vccd1 sky130_fd_sc_hd__decap_4
XANTENNA_ring.x12.x7_TE_B trim_a[22] vssd1 vssd1 vccd1 vccd1 sky130_fd_sc_hd__diode_2
XFILLER_0_47 vssd1 vssd1 vccd1 vccd1 sky130_fd_sc_hd__decap_8
XFILLER_9_45 vssd1 vssd1 vccd1 vccd1 sky130_fd_sc_hd__decap_4
XFILLER_43_3 vssd1 vssd1 vccd1 vccd1 sky130_fd_sc_hd__decap_3
Xring.x8.x3 ring.x8.x6/Z vssd1 vssd1 vccd1 vccd1 ring.x8.x4/A sky130_fd_sc_hd__clkinv_1
XFILLER_18_10 vssd1 vssd1 vccd1 vccd1 sky130_fd_sc_hd__decap_4
XFILLER_18_32 vssd1 vssd1 vccd1 vccd1 sky130_fd_sc_hd__decap_4
XFILLER_18_54 vssd1 vssd1 vccd1 vccd1 sky130_fd_sc_hd__decap_4
XFILLER_18_76 vssd1 vssd1 vccd1 vccd1 sky130_fd_sc_hd__decap_4
XANTENNA_ring.x18.x2_TE_B trim_b[11] vssd1 vssd1 vccd1 vccd1 sky130_fd_sc_hd__diode_2
XFILLER_29_64 vssd1 vssd1 vccd1 vccd1 sky130_fd_sc_hd__decap_6
XFILLER_29_31 vssd1 vssd1 vccd1 vccd1 sky130_fd_sc_hd__decap_4
XFILLER_20_77 vssd1 vssd1 vccd1 vccd1 sky130_fd_sc_hd__decap_4
XFILLER_45_52 vssd1 vssd1 vccd1 vccd1 sky130_fd_sc_hd__decap_4
XFILLER_6_24 vssd1 vssd1 vccd1 vccd1 sky130_fd_sc_hd__decap_4
Xring.x5.x4 ring.x5.x4/A trim_a[8] vssd1 vssd1 vccd1 vccd1 ring.x6.x1/A sky130_fd_sc_hd__einvp_2
XFILLER_15_33 vssd1 vssd1 vccd1 vccd1 sky130_fd_sc_hd__decap_4
XFILLER_31_21 vssd1 vssd1 vccd1 vccd1 sky130_fd_sc_hd__decap_4
XFILLER_15_77 vssd1 vssd1 vccd1 vccd1 sky130_fd_sc_hd__decap_4
XTAP_135 vssd1 vccd1 sky130_fd_sc_hd__tapvpwrvgnd_1
XTAP_124 vssd1 vccd1 sky130_fd_sc_hd__tapvpwrvgnd_1
Xring.x11.x1 ring.x11.x1/A vssd1 vssd1 vccd1 vccd1 ring.x11.x7/A sky130_fd_sc_hd__clkbuf_2
XTAP_102 vssd1 vccd1 sky130_fd_sc_hd__tapvpwrvgnd_1
XTAP_113 vssd1 vccd1 sky130_fd_sc_hd__tapvpwrvgnd_1
XANTENNA_ring.x9.x6_TE trim_a[17] vssd1 vssd1 vccd1 vccd1 sky130_fd_sc_hd__diode_2
XFILLER_26_54 vssd1 vssd1 vccd1 vccd1 sky130_fd_sc_hd__fill_1
XFILLER_3_47 vssd1 vssd1 vccd1 vccd1 sky130_fd_sc_hd__decap_8
Xring.x2.x5 ring.x2.x7/A vssd1 vssd1 vccd1 vccd1 ring.x2.x6/A sky130_fd_sc_hd__clkbuf_1
XFILLER_23_22 vssd1 vssd1 vccd1 vccd1 sky130_fd_sc_hd__decap_4
XFILLER_3_3 vssd1 vssd1 vccd1 vccd1 sky130_fd_sc_hd__fill_1
XFILLER_36_3 vssd1 vssd1 vccd1 vccd1 sky130_fd_sc_hd__decap_12
XANTENNA_ring.x14.x2_TE_B trim_b[3] vssd1 vssd1 vccd1 vccd1 sky130_fd_sc_hd__diode_2
Xring.x8.x4 ring.x8.x4/A trim_a[14] vssd1 vssd1 vccd1 vccd1 ring.x9.x1/A sky130_fd_sc_hd__einvp_2
XFILLER_15_8 vssd1 vssd1 vccd1 vccd1 sky130_fd_sc_hd__decap_4
Xring.x14.x1 ring.x14.x1/A vssd1 vssd1 vccd1 vccd1 ring.x14.x7/A sky130_fd_sc_hd__clkbuf_2
XFILLER_1_80 vssd1 vssd1 vccd1 vccd1 sky130_fd_sc_hd__fill_1
XFILLER_20_12 vssd1 vssd1 vccd1 vccd1 sky130_fd_sc_hd__decap_4
XFILLER_45_31 vssd1 vssd1 vccd1 vccd1 sky130_fd_sc_hd__decap_4
XFILLER_20_6 vssd1 vssd1 vccd1 vccd1 sky130_fd_sc_hd__decap_4
XFILLER_31_77 vssd1 vssd1 vccd1 vccd1 sky130_fd_sc_hd__decap_4
Xring.x5.x5 ring.x5.x7/A vssd1 vssd1 vccd1 vccd1 ring.x5.x6/A sky130_fd_sc_hd__clkbuf_1
XTAP_136 vssd1 vccd1 sky130_fd_sc_hd__tapvpwrvgnd_1
XTAP_125 vssd1 vccd1 sky130_fd_sc_hd__tapvpwrvgnd_1
XTAP_103 vssd1 vccd1 sky130_fd_sc_hd__tapvpwrvgnd_1
Xring.x11.x2 ring.x11.x7/A trim_a[21] vssd1 vssd1 vccd1 vccd1 ring.x11.x6/Z sky130_fd_sc_hd__einvn_4
XTAP_114 vssd1 vccd1 sky130_fd_sc_hd__tapvpwrvgnd_1
XFILLER_26_33 vssd1 vssd1 vccd1 vccd1 sky130_fd_sc_hd__fill_1
XFILLER_26_11 vssd1 vssd1 vccd1 vccd1 sky130_fd_sc_hd__decap_4
Xring.x22.x1 ring.x22.x1/A vssd1 vssd1 vccd1 vccd1 ring.x22.x7/A sky130_fd_sc_hd__clkbuf_2
Xring.x2.x6 ring.x2.x6/A trim_a[3] vssd1 vssd1 vccd1 vccd1 ring.x2.x6/Z sky130_fd_sc_hd__einvp_2
XFILLER_12_24 vssd1 vssd1 vccd1 vccd1 sky130_fd_sc_hd__decap_4
Xring.x17.x1 ring.x17.x1/A vssd1 vssd1 vccd1 vccd1 ring.x17.x7/A sky130_fd_sc_hd__clkbuf_2
XANTENNA_ring.x8.x6_TE trim_a[15] vssd1 vssd1 vccd1 vccd1 sky130_fd_sc_hd__diode_2
XFILLER_4_80 vssd1 vssd1 vccd1 vccd1 sky130_fd_sc_hd__fill_1
XANTENNA_ring.x10.x2_TE_B trim_a[19] vssd1 vssd1 vccd1 vccd1 sky130_fd_sc_hd__diode_2
XFILLER_0_16 vssd1 vssd1 vccd1 vccd1 sky130_fd_sc_hd__decap_4
XFILLER_34_77 vssd1 vssd1 vccd1 vccd1 sky130_fd_sc_hd__decap_4
XFILLER_34_55 vssd1 vssd1 vccd1 vccd1 sky130_fd_sc_hd__decap_4
XFILLER_34_44 vssd1 vssd1 vccd1 vccd1 sky130_fd_sc_hd__decap_4
Xring.x8.x5 ring.x8.x7/A vssd1 vssd1 vccd1 vccd1 ring.x8.x6/A sky130_fd_sc_hd__clkbuf_1
Xring.x14.x2 ring.x14.x7/A trim_b[3] vssd1 vssd1 vccd1 vccd1 ring.x14.x6/Z sky130_fd_sc_hd__einvn_4
XFILLER_20_24 vssd1 vssd1 vccd1 vccd1 sky130_fd_sc_hd__decap_4
XFILLER_29_77 vssd1 vssd1 vccd1 vccd1 sky130_fd_sc_hd__decap_4
XFILLER_29_11 vssd1 vssd1 vccd1 vccd1 sky130_fd_sc_hd__decap_4
Xring.x25.x1 ring.x25.x1/A vssd1 vssd1 vccd1 vccd1 ring.x25.x7/A sky130_fd_sc_hd__clkbuf_2
Xring.x5.x6 ring.x5.x6/A trim_a[9] vssd1 vssd1 vccd1 vccd1 ring.x5.x6/Z sky130_fd_sc_hd__einvp_2
XTAP_137 vssd1 vccd1 sky130_fd_sc_hd__tapvpwrvgnd_1
XTAP_126 vssd1 vccd1 sky130_fd_sc_hd__tapvpwrvgnd_1
XTAP_104 vssd1 vccd1 sky130_fd_sc_hd__tapvpwrvgnd_1
Xring.x11.x3 ring.x11.x6/Z vssd1 vssd1 vccd1 vccd1 ring.x11.x4/A sky130_fd_sc_hd__clkinv_1
XTAP_115 vssd1 vccd1 sky130_fd_sc_hd__tapvpwrvgnd_1
XFILLER_42_77 vssd1 vssd1 vccd1 vccd1 sky130_fd_sc_hd__decap_4
XFILLER_42_11 vssd1 vssd1 vccd1 vccd1 sky130_fd_sc_hd__decap_4
Xring.x22.x2 ring.x22.x7/A trim_b[17] vssd1 vssd1 vccd1 vccd1 ring.x22.x6/Z sky130_fd_sc_hd__einvn_4
Xring.x2.x7 ring.x2.x7/A trim_a[2] vssd1 vssd1 vccd1 vccd1 ring.x3.x1/A sky130_fd_sc_hd__einvn_8
XFILLER_12_36 vssd1 vssd1 vccd1 vccd1 sky130_fd_sc_hd__decap_4
XFILLER_37_77 vssd1 vssd1 vccd1 vccd1 sky130_fd_sc_hd__decap_4
XFILLER_37_22 vssd1 vssd1 vccd1 vccd1 sky130_fd_sc_hd__decap_4
XFILLER_37_11 vssd1 vssd1 vccd1 vccd1 sky130_fd_sc_hd__decap_3
Xring.x17.x2 ring.x17.x7/A trim_b[9] vssd1 vssd1 vccd1 vccd1 ring.x17.x6/Z sky130_fd_sc_hd__einvn_4
XFILLER_23_35 vssd1 vssd1 vccd1 vccd1 sky130_fd_sc_hd__decap_4
Xring.x8.x6 ring.x8.x6/A trim_a[15] vssd1 vssd1 vccd1 vccd1 ring.x8.x6/Z sky130_fd_sc_hd__einvp_2
XFILLER_18_24 vssd1 vssd1 vccd1 vccd1 sky130_fd_sc_hd__decap_4
XANTENNA_ring.x7.x6_TE trim_a[13] vssd1 vssd1 vccd1 vccd1 sky130_fd_sc_hd__diode_2
XFILLER_41_3 vssd1 vssd1 vccd1 vccd1 sky130_fd_sc_hd__decap_4
Xring.x14.x3 ring.x14.x6/Z vssd1 vssd1 vccd1 vccd1 ring.x14.x4/A sky130_fd_sc_hd__clkinv_1
XFILLER_45_77 vssd1 vssd1 vccd1 vccd1 sky130_fd_sc_hd__decap_4
XFILLER_45_66 vssd1 vssd1 vccd1 vccd1 sky130_fd_sc_hd__decap_4
XFILLER_45_11 vssd1 vssd1 vccd1 vccd1 sky130_fd_sc_hd__decap_4
XFILLER_6_16 vssd1 vssd1 vccd1 vccd1 sky130_fd_sc_hd__decap_4
XFILLER_20_58 vssd1 vssd1 vccd1 vccd1 sky130_fd_sc_hd__decap_8
XFILLER_10_80 vssd1 vssd1 vccd1 vccd1 sky130_fd_sc_hd__fill_1
XFILLER_13_7 vssd1 vssd1 vccd1 vccd1 sky130_fd_sc_hd__fill_1
Xring.x25.x2 ring.x25.x7/A trim_b[23] vssd1 vssd1 vccd1 vccd1 ring.x25.x6/Z sky130_fd_sc_hd__einvn_4
Xring.x41.x1 ring.x41.x1/A vssd1 vssd1 vccd1 vccd1 ring.x41.x7/A sky130_fd_sc_hd__clkbuf_2
XFILLER_31_46 vssd1 vssd1 vccd1 vccd1 sky130_fd_sc_hd__decap_4
XFILLER_31_35 vssd1 vssd1 vccd1 vccd1 sky130_fd_sc_hd__decap_4
Xring.x5.x7 ring.x5.x7/A trim_a[8] vssd1 vssd1 vccd1 vccd1 ring.x6.x1/A sky130_fd_sc_hd__einvn_8
XFILLER_15_14 vssd1 vssd1 vccd1 vccd1 sky130_fd_sc_hd__decap_4
XTAP_138 vssd1 vccd1 sky130_fd_sc_hd__tapvpwrvgnd_1
XTAP_127 vssd1 vccd1 sky130_fd_sc_hd__tapvpwrvgnd_1
XTAP_116 vssd1 vccd1 sky130_fd_sc_hd__tapvpwrvgnd_1
XTAP_105 vssd1 vccd1 sky130_fd_sc_hd__tapvpwrvgnd_1
Xring.x11.x4 ring.x11.x4/A trim_a[20] vssd1 vssd1 vccd1 vccd1 ring.x12.x1/A sky130_fd_sc_hd__einvp_2
XANTENNA_ring.x42.x7_TE_B trim_b[26] vssd1 vssd1 vccd1 vccd1 sky130_fd_sc_hd__diode_2
XFILLER_26_24 vssd1 vssd1 vccd1 vccd1 sky130_fd_sc_hd__decap_4
Xring.x22.x3 ring.x22.x6/Z vssd1 vssd1 vccd1 vccd1 ring.x22.x4/A sky130_fd_sc_hd__clkinv_1
Xring.x17.x3 ring.x17.x6/Z vssd1 vssd1 vccd1 vccd1 ring.x17.x4/A sky130_fd_sc_hd__clkinv_1
XFILLER_29_5 vssd1 vssd1 vccd1 vccd1 sky130_fd_sc_hd__decap_4
XFILLER_34_24 vssd1 vssd1 vccd1 vccd1 sky130_fd_sc_hd__decap_4
XFILLER_1_3 vssd1 vssd1 vccd1 vccd1 sky130_fd_sc_hd__decap_4
Xring.x8.x7 ring.x8.x7/A trim_a[14] vssd1 vssd1 vccd1 vccd1 ring.x9.x1/A sky130_fd_sc_hd__einvn_8
XFILLER_34_3 vssd1 vssd1 vccd1 vccd1 sky130_fd_sc_hd__decap_12
Xring.x14.x4 ring.x14.x4/A trim_b[2] vssd1 vssd1 vccd1 vccd1 ring.x15.x1/A sky130_fd_sc_hd__einvp_2
XFILLER_29_46 vssd1 vssd1 vccd1 vccd1 sky130_fd_sc_hd__decap_4
XFILLER_29_24 vssd1 vssd1 vccd1 vccd1 sky130_fd_sc_hd__decap_4
Xring.x39.x1 ring.x39.x1/A vssd1 vssd1 vccd1 vccd1 ring.x39.x7/A sky130_fd_sc_hd__clkbuf_2
Xring.x41.x2 ring.x41.x7/A trim_b[25] vssd1 vssd1 vccd1 vccd1 ring.x41.x6/Z sky130_fd_sc_hd__einvn_4
Xring.x25.x3 ring.x25.x6/Z vssd1 vssd1 vccd1 vccd1 ring.x25.x4/A sky130_fd_sc_hd__clkinv_1
XANTENNA_ring.x19.x6_TE trim_b[13] vssd1 vssd1 vccd1 vccd1 sky130_fd_sc_hd__diode_2
XANTENNA_ring.x6.x6_TE trim_a[11] vssd1 vssd1 vccd1 vccd1 sky130_fd_sc_hd__diode_2
XFILLER_15_26 vssd1 vssd1 vccd1 vccd1 sky130_fd_sc_hd__decap_4
XTAP_139 vssd1 vccd1 sky130_fd_sc_hd__tapvpwrvgnd_1
XTAP_128 vssd1 vccd1 sky130_fd_sc_hd__tapvpwrvgnd_1
XTAP_117 vssd1 vccd1 sky130_fd_sc_hd__tapvpwrvgnd_1
XPHY_0 vssd1 vssd1 vccd1 vccd1 sky130_fd_sc_hd__decap_3
XFILLER_11_5 vssd1 vssd1 vccd1 vccd1 sky130_fd_sc_hd__decap_4
XTAP_106 vssd1 vccd1 sky130_fd_sc_hd__tapvpwrvgnd_1
Xring.x11.x5 ring.x11.x7/A vssd1 vssd1 vccd1 vccd1 ring.x11.x6/A sky130_fd_sc_hd__clkbuf_1
XFILLER_42_24 vssd1 vssd1 vccd1 vccd1 sky130_fd_sc_hd__decap_4
Xring.x22.x4 ring.x22.x4/A trim_b[16] vssd1 vssd1 vccd1 vccd1 ring.x23.x1/A sky130_fd_sc_hd__einvp_2
XFILLER_37_57 vssd1 vssd1 vccd1 vccd1 sky130_fd_sc_hd__fill_2
Xring.x17.x4 ring.x17.x4/A trim_b[8] vssd1 vssd1 vccd1 vccd1 ring.x18.x1/A sky130_fd_sc_hd__einvp_2
XFILLER_3_7 vssd1 vssd1 vccd1 vccd1 sky130_fd_sc_hd__decap_4
XFILLER_43_8 vssd1 vssd1 vccd1 vccd1 sky130_fd_sc_hd__decap_4
XFILLER_34_36 vssd1 vssd1 vccd1 vccd1 sky130_fd_sc_hd__decap_4
Xring.x14.x5 ring.x14.x7/A vssd1 vssd1 vccd1 vccd1 ring.x14.x6/A sky130_fd_sc_hd__clkbuf_1
XFILLER_27_3 vssd1 vssd1 vccd1 vccd1 sky130_fd_sc_hd__fill_2
Xring.x39.x2 ring.x39.x7/A trim_a[25] vssd1 vssd1 vccd1 vccd1 ring.x39.x6/Z sky130_fd_sc_hd__einvn_4
XFILLER_45_57 vssd1 vssd1 vccd1 vccd1 sky130_fd_sc_hd__fill_2
XFILLER_45_46 vssd1 vssd1 vccd1 vccd1 sky130_fd_sc_hd__decap_4
XFILLER_45_24 vssd1 vssd1 vccd1 vccd1 sky130_fd_sc_hd__decap_4
XFILLER_6_29 vssd1 vssd1 vccd1 vccd1 sky130_fd_sc_hd__decap_4
XFILLER_10_60 vssd1 vssd1 vccd1 vccd1 sky130_fd_sc_hd__fill_1
Xring.x25.x4 ring.x25.x4/A trim_b[22] vssd1 vssd1 vccd1 vccd1 ring.x41.x1/A sky130_fd_sc_hd__einvp_2
Xring.x41.x3 ring.x41.x6/Z vssd1 vssd1 vccd1 vccd1 ring.x41.x4/A sky130_fd_sc_hd__clkinv_1
XFILLER_31_15 vssd1 vssd1 vccd1 vccd1 sky130_fd_sc_hd__decap_4
XANTENNA_ring.x39.x2_TE_B trim_a[25] vssd1 vssd1 vccd1 vccd1 sky130_fd_sc_hd__diode_2
XTAP_129 vssd1 vccd1 sky130_fd_sc_hd__tapvpwrvgnd_1
XANTENNA_ring.x8.x7_TE_B trim_a[14] vssd1 vssd1 vccd1 vccd1 sky130_fd_sc_hd__diode_2
XTAP_118 vssd1 vccd1 sky130_fd_sc_hd__tapvpwrvgnd_1
XPHY_1 vssd1 vssd1 vccd1 vccd1 sky130_fd_sc_hd__decap_3
XTAP_107 vssd1 vccd1 sky130_fd_sc_hd__tapvpwrvgnd_1
Xring.x11.x6 ring.x11.x6/A trim_a[21] vssd1 vssd1 vccd1 vccd1 ring.x11.x6/Z sky130_fd_sc_hd__einvp_2
XFILLER_26_48 vssd1 vssd1 vccd1 vccd1 sky130_fd_sc_hd__decap_6
XFILLER_26_37 vssd1 vssd1 vccd1 vccd1 sky130_fd_sc_hd__decap_4
XANTENNA_ring.x40.x2_TE_B trim_a[27] vssd1 vssd1 vccd1 vccd1 sky130_fd_sc_hd__diode_2
Xring.x22.x5 ring.x22.x7/A vssd1 vssd1 vccd1 vccd1 ring.x22.x6/A sky130_fd_sc_hd__clkbuf_1
XANTENNA_ring.x18.x6_TE trim_b[11] vssd1 vssd1 vccd1 vccd1 sky130_fd_sc_hd__diode_2
XANTENNA_ring.x5.x6_TE trim_a[9] vssd1 vssd1 vccd1 vccd1 sky130_fd_sc_hd__diode_2
XFILLER_12_17 vssd1 vssd1 vccd1 vccd1 sky130_fd_sc_hd__decap_4
XFILLER_27_80 vssd1 vssd1 vccd1 vccd1 sky130_fd_sc_hd__fill_1
Xring.x17.x5 ring.x17.x7/A vssd1 vssd1 vccd1 vccd1 ring.x17.x6/A sky130_fd_sc_hd__clkbuf_1
XFILLER_4_51 vssd1 vssd1 vccd1 vccd1 sky130_fd_sc_hd__fill_1
XFILLER_23_16 vssd1 vssd1 vccd1 vccd1 sky130_fd_sc_hd__decap_4
XFILLER_34_15 vssd1 vssd1 vccd1 vccd1 sky130_fd_sc_hd__fill_1
Xring.x14.x6 ring.x14.x6/A trim_b[3] vssd1 vssd1 vccd1 vccd1 ring.x14.x6/Z sky130_fd_sc_hd__einvp_2
XFILLER_1_74 vssd1 vssd1 vccd1 vccd1 sky130_fd_sc_hd__decap_6
XFILLER_1_52 vssd1 vssd1 vccd1 vccd1 sky130_fd_sc_hd__decap_4
Xring.x39.x3 ring.x39.x6/Z vssd1 vssd1 vccd1 vccd1 ring.x39.x4/A sky130_fd_sc_hd__clkinv_1
XFILLER_10_72 vssd1 vssd1 vccd1 vccd1 sky130_fd_sc_hd__decap_8
Xring.x25.x5 ring.x25.x7/A vssd1 vssd1 vccd1 vccd1 ring.x25.x6/A sky130_fd_sc_hd__clkbuf_1
Xring.x41.x4 ring.x41.x4/A trim_b[24] vssd1 vssd1 vccd1 vccd1 ring.x42.x1/A sky130_fd_sc_hd__einvp_2
XANTENNA_ring.x4.x7_TE_B trim_a[6] vssd1 vssd1 vccd1 vccd1 sky130_fd_sc_hd__diode_2
XFILLER_31_27 vssd1 vssd1 vccd1 vccd1 sky130_fd_sc_hd__decap_4
XTAP_119 vssd1 vccd1 sky130_fd_sc_hd__tapvpwrvgnd_1
XPHY_2 vssd1 vssd1 vccd1 vccd1 sky130_fd_sc_hd__decap_3
XTAP_108 vssd1 vccd1 sky130_fd_sc_hd__tapvpwrvgnd_1
Xring.x11.x7 ring.x11.x7/A trim_a[20] vssd1 vssd1 vccd1 vccd1 ring.x12.x1/A sky130_fd_sc_hd__einvn_8
Xring.x22.x6 ring.x22.x6/A trim_b[17] vssd1 vssd1 vccd1 vccd1 ring.x22.x6/Z sky130_fd_sc_hd__einvp_2
XANTENNA_ring.x24.x7_TE_B trim_b[20] vssd1 vssd1 vccd1 vccd1 sky130_fd_sc_hd__diode_2
XFILLER_12_29 vssd1 vssd1 vccd1 vccd1 sky130_fd_sc_hd__decap_3
XFILLER_37_48 vssd1 vssd1 vccd1 vccd1 sky130_fd_sc_hd__decap_8
XFILLER_37_37 vssd1 vssd1 vccd1 vccd1 sky130_fd_sc_hd__decap_4
Xring.x17.x6 ring.x17.x6/A trim_b[9] vssd1 vssd1 vccd1 vccd1 ring.x17.x6/Z sky130_fd_sc_hd__einvp_2
XFILLER_4_74 vssd1 vssd1 vccd1 vccd1 sky130_fd_sc_hd__decap_6
XFILLER_4_63 vssd1 vssd1 vccd1 vccd1 sky130_fd_sc_hd__decap_4
XFILLER_23_28 vssd1 vssd1 vccd1 vccd1 sky130_fd_sc_hd__decap_4
XFILLER_38_80 vssd1 vssd1 vccd1 vccd1 sky130_fd_sc_hd__fill_1
XANTENNA_ring.x17.x6_TE trim_b[9] vssd1 vssd1 vccd1 vccd1 sky130_fd_sc_hd__diode_2
XFILLER_9_19 vssd1 vssd1 vccd1 vccd1 sky130_fd_sc_hd__decap_4
XANTENNA_ring.x4.x6_TE trim_a[7] vssd1 vssd1 vccd1 vccd1 sky130_fd_sc_hd__diode_2
XFILLER_18_17 vssd1 vssd1 vccd1 vccd1 sky130_fd_sc_hd__decap_4
Xring.x14.x7 ring.x14.x7/A trim_b[2] vssd1 vssd1 vccd1 vccd1 ring.x15.x1/A sky130_fd_sc_hd__einvn_8
Xring.x39.x4 ring.x39.x4/A trim_a[24] vssd1 vssd1 vccd1 vccd1 ring.x40.x1/A sky130_fd_sc_hd__einvp_2
XFILLER_20_18 vssd1 vssd1 vccd1 vccd1 sky130_fd_sc_hd__decap_4
Xring.x25.x6 ring.x25.x6/A trim_b[23] vssd1 vssd1 vccd1 vccd1 ring.x25.x6/Z sky130_fd_sc_hd__einvp_2
XFILLER_32_3 vssd1 vssd1 vccd1 vccd1 sky130_fd_sc_hd__fill_1
Xring.x41.x5 ring.x41.x7/A vssd1 vssd1 vccd1 vccd1 ring.x41.x6/A sky130_fd_sc_hd__clkbuf_1
XANTENNA_ring.x19.x7_TE_B trim_b[12] vssd1 vssd1 vccd1 vccd1 sky130_fd_sc_hd__diode_2
XANTENNA_ring.x6.x2_TE_B trim_a[11] vssd1 vssd1 vccd1 vccd1 sky130_fd_sc_hd__diode_2
XTAP_109 vssd1 vccd1 sky130_fd_sc_hd__tapvpwrvgnd_1
XFILLER_46_80 vssd1 vssd1 vccd1 vccd1 sky130_fd_sc_hd__fill_1
XANTENNA_ring.x20.x7_TE_B trim_b[14] vssd1 vssd1 vccd1 vccd1 sky130_fd_sc_hd__diode_2
XFILLER_26_17 vssd1 vssd1 vccd1 vccd1 sky130_fd_sc_hd__decap_4
XPHY_3 vssd1 vssd1 vccd1 vccd1 sky130_fd_sc_hd__decap_3
Xring.x22.x7 ring.x22.x7/A trim_b[16] vssd1 vssd1 vccd1 vccd1 ring.x23.x1/A sky130_fd_sc_hd__einvn_8
XFILLER_37_16 vssd1 vssd1 vccd1 vccd1 sky130_fd_sc_hd__decap_4
Xring.x17.x7 ring.x17.x7/A trim_b[8] vssd1 vssd1 vccd1 vccd1 ring.x18.x1/A sky130_fd_sc_hd__einvn_8
XFILLER_13_51 vssd1 vssd1 vccd1 vccd1 sky130_fd_sc_hd__decap_4
XFILLER_1_7 vssd1 vssd1 vccd1 vccd1 sky130_fd_sc_hd__fill_1
XANTENNA_ring.x42.x4_TE trim_b[26] vssd1 vssd1 vccd1 vccd1 sky130_fd_sc_hd__diode_2
Xring.x39.x5 ring.x39.x7/A vssd1 vssd1 vccd1 vccd1 ring.x39.x6/A sky130_fd_sc_hd__clkbuf_1
XANTENNA_ring.x16.x6_TE trim_b[7] vssd1 vssd1 vccd1 vccd1 sky130_fd_sc_hd__diode_2
XFILLER_29_17 vssd1 vssd1 vccd1 vccd1 sky130_fd_sc_hd__decap_4
XANTENNA_ring.x3.x6_TE trim_a[5] vssd1 vssd1 vccd1 vccd1 sky130_fd_sc_hd__diode_2
XANTENNA_ring.x15.x7_TE_B trim_b[4] vssd1 vssd1 vccd1 vccd1 sky130_fd_sc_hd__diode_2
XANTENNA_ring.x2.x2_TE_B trim_a[3] vssd1 vssd1 vccd1 vccd1 sky130_fd_sc_hd__diode_2
Xring.x41.x6 ring.x41.x6/A trim_b[25] vssd1 vssd1 vccd1 vccd1 ring.x41.x6/Z sky130_fd_sc_hd__einvp_2
Xring.x25.x7 ring.x25.x7/A trim_b[22] vssd1 vssd1 vccd1 vccd1 ring.x41.x1/A sky130_fd_sc_hd__einvn_8
XFILLER_25_3 vssd1 vssd1 vccd1 vccd1 sky130_fd_sc_hd__fill_1
XPHY_4 vssd1 vssd1 vccd1 vccd1 sky130_fd_sc_hd__decap_3
XANTENNA_ring.x30_S0 clkmux[0] vssd1 vssd1 vccd1 vccd1 sky130_fd_sc_hd__diode_2
XFILLER_42_17 vssd1 vssd1 vccd1 vccd1 sky130_fd_sc_hd__decap_4
XFILLER_26_29 vssd1 vssd1 vccd1 vccd1 sky130_fd_sc_hd__decap_4
XANTENNA_ring.x22.x2_TE_B trim_b[17] vssd1 vssd1 vccd1 vccd1 sky130_fd_sc_hd__diode_2
XFILLER_43_60 vssd1 vssd1 vccd1 vccd1 sky130_fd_sc_hd__decap_4
Xring.x30 ring.x26/X ring.x27/Q ring.x29/Q ring.x33/Q clkmux[0] clkmux[1] vssd1 vssd1
+ vccd1 vccd1 ring.x35/A sky130_fd_sc_hd__mux4_2
Xring.x3.x1 ring.x3.x1/A vssd1 vssd1 vccd1 vccd1 ring.x3.x7/A sky130_fd_sc_hd__clkbuf_2
XFILLER_34_29 vssd1 vssd1 vccd1 vccd1 sky130_fd_sc_hd__decap_4
XFILLER_34_18 vssd1 vssd1 vccd1 vccd1 sky130_fd_sc_hd__decap_4
XANTENNA_ring.x11.x7_TE_B trim_a[20] vssd1 vssd1 vccd1 vccd1 sky130_fd_sc_hd__diode_2
XFILLER_41_9 vssd1 vssd1 vccd1 vccd1 sky130_fd_sc_hd__decap_4
XFILLER_27_7 vssd1 vssd1 vccd1 vccd1 sky130_fd_sc_hd__decap_4
XFILLER_45_17 vssd1 vssd1 vccd1 vccd1 sky130_fd_sc_hd__decap_4
Xring.x39.x6 ring.x39.x6/A trim_a[25] vssd1 vssd1 vccd1 vccd1 ring.x39.x6/Z sky130_fd_sc_hd__einvp_2
XFILLER_35_61 vssd1 vssd1 vccd1 vccd1 sky130_fd_sc_hd__decap_8
XFILLER_10_31 vssd1 vssd1 vccd1 vccd1 sky130_fd_sc_hd__decap_4
XFILLER_10_42 vssd1 vssd1 vccd1 vccd1 sky130_fd_sc_hd__decap_6
Xring.x41.x7 ring.x41.x7/A trim_b[24] vssd1 vssd1 vccd1 vccd1 ring.x42.x1/A sky130_fd_sc_hd__einvn_8
XANTENNA_ring.x17.x2_TE_B trim_b[9] vssd1 vssd1 vccd1 vccd1 sky130_fd_sc_hd__diode_2
XFILLER_18_3 vssd1 vssd1 vccd1 vccd1 sky130_fd_sc_hd__decap_4
XANTENNA_ring.x41.x4_TE trim_b[24] vssd1 vssd1 vccd1 vccd1 sky130_fd_sc_hd__diode_2
XFILLER_21_52 vssd1 vssd1 vccd1 vccd1 sky130_fd_sc_hd__decap_4
XANTENNA_ring.x15.x6_TE trim_b[5] vssd1 vssd1 vccd1 vccd1 sky130_fd_sc_hd__diode_2
XPHY_5 vssd1 vssd1 vccd1 vccd1 sky130_fd_sc_hd__decap_3
XANTENNA_ring.x2.x6_TE trim_a[3] vssd1 vssd1 vccd1 vccd1 sky130_fd_sc_hd__diode_2
XANTENNA_ring.x30_S1 clkmux[1] vssd1 vssd1 vccd1 vccd1 sky130_fd_sc_hd__diode_2
XFILLER_42_29 vssd1 vssd1 vccd1 vccd1 sky130_fd_sc_hd__decap_4
Xring.x6.x1 ring.x6.x1/A vssd1 vssd1 vccd1 vccd1 ring.x6.x7/A sky130_fd_sc_hd__clkbuf_2
XFILLER_37_29 vssd1 vssd1 vccd1 vccd1 sky130_fd_sc_hd__decap_4
Xring.x31 ring.x26/X ring.x31/D vssd1 vssd1 vccd1 vccd1 ring.x31/Q ring.x31/D sky130_fd_sc_hd__dfxbp_2
Xring.x3.x2 ring.x3.x7/A trim_a[5] vssd1 vssd1 vccd1 vccd1 ring.x3.x6/Z sky130_fd_sc_hd__einvn_4
XFILLER_13_75 vssd1 vssd1 vccd1 vccd1 sky130_fd_sc_hd__decap_6
XFILLER_38_72 vssd1 vssd1 vccd1 vccd1 sky130_fd_sc_hd__decap_8
XFILLER_38_61 vssd1 vssd1 vccd1 vccd1 sky130_fd_sc_hd__decap_4
XFILLER_1_12 vssd1 vssd1 vccd1 vccd1 sky130_fd_sc_hd__decap_4
XANTENNA_ring.x13.x2_TE_B trim_b[1] vssd1 vssd1 vccd1 vccd1 sky130_fd_sc_hd__diode_2
Xring.x39.x7 ring.x39.x7/A trim_a[24] vssd1 vssd1 vccd1 vccd1 ring.x40.x1/A sky130_fd_sc_hd__einvn_8
XFILLER_10_10 vssd1 vssd1 vccd1 vccd1 sky130_fd_sc_hd__decap_4
Xring.x9.x1 ring.x9.x1/A vssd1 vssd1 vccd1 vccd1 ring.x9.x7/A sky130_fd_sc_hd__clkbuf_2
XFILLER_19_30 vssd1 vssd1 vccd1 vccd1 sky130_fd_sc_hd__decap_4
XFILLER_19_52 vssd1 vssd1 vccd1 vccd1 sky130_fd_sc_hd__decap_4
XFILLER_32_6 vssd1 vssd1 vccd1 vccd1 sky130_fd_sc_hd__decap_4
XPHY_6 vssd1 vssd1 vccd1 vccd1 sky130_fd_sc_hd__decap_3
XFILLER_7_55 vssd1 vssd1 vccd1 vccd1 sky130_fd_sc_hd__fill_1
XFILLER_7_77 vssd1 vssd1 vccd1 vccd1 sky130_fd_sc_hd__decap_4
XFILLER_30_3 vssd1 vssd1 vccd1 vccd1 sky130_fd_sc_hd__fill_1
Xring.x6.x2 ring.x6.x7/A trim_a[11] vssd1 vssd1 vccd1 vccd1 ring.x6.x6/Z sky130_fd_sc_hd__einvn_4
XFILLER_16_31 vssd1 vssd1 vccd1 vccd1 sky130_fd_sc_hd__decap_4
XFILLER_16_42 vssd1 vssd1 vccd1 vccd1 sky130_fd_sc_hd__decap_4
XANTENNA_ring.x38_A start vssd1 vssd1 vccd1 vccd1 sky130_fd_sc_hd__diode_2
XANTENNA_ring.x14.x6_TE trim_b[3] vssd1 vssd1 vccd1 vccd1 sky130_fd_sc_hd__diode_2
XFILLER_27_52 vssd1 vssd1 vccd1 vccd1 sky130_fd_sc_hd__decap_4
XFILLER_27_41 vssd1 vssd1 vccd1 vccd1 sky130_fd_sc_hd__decap_4
XANTENNA_ring.x1.x6_TE trim_a[1] vssd1 vssd1 vccd1 vccd1 sky130_fd_sc_hd__diode_2
XANTENNA_ring.x40.x4_TE trim_a[26] vssd1 vssd1 vccd1 vccd1 sky130_fd_sc_hd__diode_2
Xring.x32 ring.x31/Q ring.x32/D vssd1 vssd1 vccd1 vccd1 ring.x32/Q ring.x32/D sky130_fd_sc_hd__dfxbp_2
Xring.x3.x3 ring.x3.x6/Z vssd1 vssd1 vccd1 vccd1 ring.x3.x4/A sky130_fd_sc_hd__clkinv_1
Xring.x21 ring.x36/A ring.x47/A vssd1 vssd1 vccd1 vccd1 ring.x21/Y sky130_fd_sc_hd__nand2_4
XFILLER_13_10 vssd1 vssd1 vccd1 vccd1 sky130_fd_sc_hd__decap_4
XFILLER_24_75 vssd1 vssd1 vccd1 vccd1 sky130_fd_sc_hd__decap_6
XFILLER_24_64 vssd1 vssd1 vccd1 vccd1 sky130_fd_sc_hd__decap_4
XFILLER_24_53 vssd1 vssd1 vccd1 vccd1 sky130_fd_sc_hd__decap_4
XFILLER_24_31 vssd1 vssd1 vccd1 vccd1 sky130_fd_sc_hd__decap_4
Xring.x9.x2 ring.x9.x7/A trim_a[17] vssd1 vssd1 vccd1 vccd1 ring.x9.x6/Z sky130_fd_sc_hd__einvn_4
XFILLER_35_52 vssd1 vssd1 vccd1 vccd1 sky130_fd_sc_hd__decap_4
XFILLER_35_30 vssd1 vssd1 vccd1 vccd1 sky130_fd_sc_hd__decap_4
XFILLER_25_6 vssd1 vssd1 vccd1 vccd1 sky130_fd_sc_hd__decap_4
XPHY_7 vssd1 vssd1 vccd1 vccd1 sky130_fd_sc_hd__decap_3
XFILLER_23_3 vssd1 vssd1 vccd1 vccd1 sky130_fd_sc_hd__decap_4
Xring.x6.x3 ring.x6.x6/Z vssd1 vssd1 vccd1 vccd1 ring.x6.x4/A sky130_fd_sc_hd__clkinv_1
XFILLER_16_54 vssd1 vssd1 vccd1 vccd1 sky130_fd_sc_hd__decap_8
XFILLER_43_52 vssd1 vssd1 vccd1 vccd1 sky130_fd_sc_hd__decap_4
XFILLER_43_30 vssd1 vssd1 vccd1 vccd1 sky130_fd_sc_hd__decap_4
XFILLER_27_20 vssd1 vssd1 vccd1 vccd1 sky130_fd_sc_hd__decap_4
XFILLER_4_24 vssd1 vssd1 vccd1 vccd1 sky130_fd_sc_hd__decap_4
Xring.x33 ring.x32/Q ring.x33/D vssd1 vssd1 vccd1 vccd1 ring.x33/Q ring.x33/D sky130_fd_sc_hd__dfxbp_2
Xring.x3.x4 ring.x3.x4/A trim_a[4] vssd1 vssd1 vccd1 vccd1 ring.x4.x1/A sky130_fd_sc_hd__einvp_2
XFILLER_13_55 vssd1 vssd1 vccd1 vccd1 sky130_fd_sc_hd__fill_1
XANTENNA_ring.x9.x4_TE trim_a[16] vssd1 vssd1 vccd1 vccd1 sky130_fd_sc_hd__diode_2
XANTENNA_ring.x13.x6_TE trim_b[1] vssd1 vssd1 vccd1 vccd1 sky130_fd_sc_hd__diode_2
XFILLER_10_56 vssd1 vssd1 vccd1 vccd1 sky130_fd_sc_hd__decap_4
Xring.x9.x3 ring.x9.x6/Z vssd1 vssd1 vccd1 vccd1 ring.x9.x4/A sky130_fd_sc_hd__clkinv_1
XFILLER_46_74 vssd1 vssd1 vccd1 vccd1 sky130_fd_sc_hd__decap_6
XFILLER_46_63 vssd1 vssd1 vccd1 vccd1 sky130_fd_sc_hd__decap_4
XFILLER_46_52 vssd1 vssd1 vccd1 vccd1 sky130_fd_sc_hd__decap_4
XFILLER_21_77 vssd1 vssd1 vccd1 vccd1 sky130_fd_sc_hd__decap_4
XFILLER_21_44 vssd1 vssd1 vccd1 vccd1 sky130_fd_sc_hd__decap_4
XFILLER_21_11 vssd1 vssd1 vccd1 vccd1 sky130_fd_sc_hd__decap_4
XPHY_8 vssd1 vssd1 vccd1 vccd1 sky130_fd_sc_hd__decap_3
XFILLER_7_13 vssd1 vssd1 vccd1 vccd1 sky130_fd_sc_hd__decap_4
XFILLER_7_57 vssd1 vssd1 vccd1 vccd1 sky130_fd_sc_hd__fill_2
XFILLER_16_3 vssd1 vssd1 vccd1 vccd1 sky130_fd_sc_hd__fill_1
Xring.x6.x4 ring.x6.x4/A trim_a[10] vssd1 vssd1 vccd1 vccd1 ring.x7.x1/A sky130_fd_sc_hd__einvp_2
XFILLER_16_77 vssd1 vssd1 vccd1 vccd1 sky130_fd_sc_hd__decap_4
XFILLER_32_65 vssd1 vssd1 vccd1 vccd1 sky130_fd_sc_hd__fill_1
Xring.x12.x1 ring.x12.x1/A vssd1 vssd1 vccd1 vccd1 ring.x12.x7/A sky130_fd_sc_hd__clkbuf_2
XFILLER_43_75 vssd1 vssd1 vccd1 vccd1 sky130_fd_sc_hd__decap_6
XANTENNA_ring.x41.x7_TE_B trim_b[24] vssd1 vssd1 vccd1 vccd1 sky130_fd_sc_hd__diode_2
XFILLER_27_76 vssd1 vssd1 vccd1 vccd1 sky130_fd_sc_hd__decap_4
XFILLER_4_47 vssd1 vssd1 vccd1 vccd1 sky130_fd_sc_hd__decap_4
XFILLER_4_36 vssd1 vssd1 vccd1 vccd1 sky130_fd_sc_hd__decap_4
Xring.x34 ring.x36/X ring.x37/X clkmux[2] vssd1 vssd1 vccd1 vccd1 ring.x34/X sky130_fd_sc_hd__mux2_2
XFILLER_38_53 vssd1 vssd1 vccd1 vccd1 sky130_fd_sc_hd__fill_1
XFILLER_38_31 vssd1 vssd1 vccd1 vccd1 sky130_fd_sc_hd__decap_4
Xring.x3.x5 ring.x3.x7/A vssd1 vssd1 vccd1 vccd1 ring.x3.x6/A sky130_fd_sc_hd__clkbuf_1
XFILLER_1_59 vssd1 vssd1 vccd1 vccd1 sky130_fd_sc_hd__decap_4
XFILLER_1_37 vssd1 vssd1 vccd1 vccd1 sky130_fd_sc_hd__decap_4
XFILLER_46_3 vssd1 vssd1 vccd1 vccd1 sky130_fd_sc_hd__decap_6
Xring.x20.x1 ring.x20.x1/A vssd1 vssd1 vccd1 vccd1 ring.x20.x7/A sky130_fd_sc_hd__clkbuf_2
XFILLER_10_24 vssd1 vssd1 vccd1 vccd1 sky130_fd_sc_hd__decap_4
Xring.x9.x4 ring.x9.x4/A trim_a[16] vssd1 vssd1 vccd1 vccd1 ring.x9.x7/Z sky130_fd_sc_hd__einvp_2
XFILLER_19_22 vssd1 vssd1 vccd1 vccd1 sky130_fd_sc_hd__decap_4
XFILLER_19_66 vssd1 vssd1 vccd1 vccd1 sky130_fd_sc_hd__decap_4
XFILLER_19_77 vssd1 vssd1 vccd1 vccd1 sky130_fd_sc_hd__decap_4
Xring.x15.x1 ring.x15.x1/A vssd1 vssd1 vccd1 vccd1 ring.x15.x7/A sky130_fd_sc_hd__clkbuf_2